28
CC(=O)N[C@H]1CCCC[C@H]1C prod  energy: -34.735236538589 gnorm: 0.002296729428 xtb: 6.3.3 (5b13467)
C         3.47733345549999   -0.18117698077689    0.29791370141935
C         2.31651306072378    0.66634960882379   -0.14665386509868
O         2.46363553402769    1.71396284325202   -0.74381973247067
N         1.10734084080664    0.17352231783697    0.16520848761414
C        -0.07555036768230    0.86309452401597   -0.28345780277858
C        -0.45613616369095    0.40130737347780   -1.68913763622117
C        -0.84641666671301   -1.07252984621730   -1.66867166335201
C        -2.02207900329657   -1.27783746821596   -0.72237562564319
C        -1.63217031970035   -0.83913371595944    0.68279602794110
C        -1.22601734379791    0.63070564609454    0.68808731305581
C        -0.83263423865280    1.07393649680573    2.09091921952782
H         3.81511022335376   -0.78510472157520   -0.54284374976171
H         3.19481059997711   -0.84136219681596    1.11405677293846
H         4.29645160633715    0.46346924490005    0.60905005220778
H         0.99238792312924   -0.72678483490065    0.59226834453854
H         0.16996070130542    1.92665461958237   -0.31049068920537
H         0.38594497160961    0.55910583256262   -2.36441551080072
H        -1.30439575325974    0.99125730958548   -2.03943986892795
H        -1.11131620802530   -1.40163286509840   -2.67340590519968
H         0.00143201182472   -1.66491946675163   -1.31927361276791
H        -2.32316802593035   -2.32549521712319   -0.71779285857080
H        -2.86259998979333   -0.67041229124006   -1.06376362552196
H        -2.46435677789580   -0.99231521396409    1.37047386735430
H        -0.78975372482034   -1.44477833475716    1.02414912472519
H        -2.07536559952271    1.22570082841198    0.35035962996351
H         0.00826464859220    0.47101517125949    2.43578491079906
H        -0.53893799735258    2.12409118247548    2.08702462682728
H        -1.66828739705332    0.93931115431163    2.77745106740810
