36
C[C@@H](Cc1ccccc1)C(=O)Cc1ccccc1 prod  energy: -49.090747471672 gnorm: 0.001634767953 xtb: 6.3.3 (5b13467)
C        -0.62987560966382   -3.33414764284139    0.48636128082359
C        -0.59692416534710   -1.81326872425711    0.36390980092726
C        -2.01434544368698   -1.23634950817819    0.44917445750313
C        -1.98107352476649    0.24267268890958    0.18853368572373
C        -1.92585555261152    0.72299542204853   -1.11202597664235
C        -1.83210368725359    2.08284092242837   -1.35505878725466
C        -1.79025078767335    2.97604851292153   -0.29629584503937
C        -1.84070575505261    2.50397281021489    1.00526024052078
C        -1.93392919421377    1.14312871580457    1.24302028881196
C         0.23506887830672   -1.23874234258456    1.48971427315821
O        -0.25289655952829   -0.77913829404647    2.47758380400670
C         1.73304194911163   -1.23313937216863    1.24339287587348
C         2.01958519961563   -0.26895746320841    0.12412925659020
C         2.57150694705851   -0.70650452810681   -1.07024217062984
C         2.78649469977612    0.18152624301116   -2.11159078125656
C         2.43762807540332    1.51428654221203   -1.96912700631201
C         1.87995555083887    1.95719120704502   -0.77936375039031
C         1.67332788799587    1.06947890044518    0.26170588772045
H        -1.05050111098113   -3.61226027681854    1.45265529635024
H         0.37854936608686   -3.73585577098588    0.40395333952707
H        -1.24847528325981   -3.75597520123679   -0.30472046739068
H        -0.15618936526804   -1.54916372359799   -0.59732681334351
H        -2.39924985095305   -1.42639957243220    1.45421352199864
H        -2.64932613108515   -1.73365272741855   -0.28536507596851
H        -1.95648163041581    0.02209744730863   -1.93957804284143
H        -1.79070557049482    2.44956076431621   -2.37470134802917
H        -1.71684008269440    4.04071857628073   -0.48589145449952
H        -1.80449136438412    3.19837342171040    1.83724004814771
H        -1.95406388188968    0.76204002888467    2.25915399035164
H         2.07024723412378   -2.23099926398895    0.96167045270848
H         2.23485344979276   -0.91287264638461    2.15829663948145
H         2.83846198210719   -1.75228787817309   -1.18201949877625
H         3.22651175494438   -0.16900518424895   -3.03879817435762
H         2.60032603846201    2.20882085751991   -2.78514519126847
H         1.60353281071847    2.99961141787744   -0.66583158698091
H         1.23519372688136    1.41335264173815    1.19317883075601
