6
CO sol  energy: -7.598769563117 gnorm: 0.000924227848 xtb: 6.3.3 (5b13467)
C        -0.35147798685700    0.03993725662809   -0.06573972628209
O         0.89809031870492   -0.61914082175965   -0.03201495727529
H        -0.70093595418584    0.31686697246661    0.93697356406953
H        -0.32599308912665    0.94467348075213   -0.68626189727335
H        -1.05910144657531   -0.66853300164694   -0.50319974692200
H         1.53941815803988   -0.01380488644024    0.35024276368320
