97
Cc1ccccc1OP(Oc1ccccc1C)8->N(c1ccccc1C)N(c1ccccc1C)p9->1oc2ccc3ccccc3c2c2c(ccc3ccccc32)o1.[Rh+]89  energy: -149.359212028320 gnorm: 0.003880151574 xtb: 6.3.3 (5b13467)
C        -5.52334948169786    0.96018881989366    3.02300367383931
C        -4.82741655278212    2.23523855894632    2.63799866670014
C        -5.21444527548659    3.45556270000939    3.15797598682212
C        -4.56377237618235    4.62804513234367    2.79714746637268
C        -3.50589888077493    4.57477209008004    1.90190620779208
C        -3.12013396627828    3.35708568650403    1.38230680389085
C        -3.76352748671327    2.17979278992484    1.73158272253357
O        -3.44514054782994    0.97143298444689    1.25375730592504
P        -2.29907397287039    0.66248322490918    0.24038069077745
O        -2.92333926901121    0.05137453173484   -1.03306486239349
C        -3.60976946162282    0.65487269102492   -2.02578854789170
C        -4.95696525068202    0.34403854751966   -2.15496756305327
C        -5.70252499771779    0.88282848928948   -3.19060555620453
C        -5.10276256063422    1.73833301398216   -4.10092803067021
C        -3.75465776825060    2.03876530177032   -3.97182801032200
C        -2.99263752112028    1.50396960293991   -2.94470991892565
C        -1.53702101024800    1.83691350919526   -2.83683168415506
N        -1.61075127457577   -0.81556785407246    0.82534769211118
C        -1.72831583590139   -1.01887968626609    2.22838024783067
C        -0.69656061598376   -0.70521872294401    3.09515808229283
C        -0.85172548073149   -0.92706846639223    4.45322500202156
C        -2.03811049173740   -1.45345823725000    4.93813434709232
C        -3.06361420821726   -1.76699574471065    4.05791742288931
C        -2.92047165118851   -1.55805333652685    2.69672370915973
C        -4.01422031873914   -1.91859962263012    1.73293005602971
N        -0.24972759992770   -0.84130082505057    0.43103366836838
C         0.24497689310434   -2.13354225557531    0.13408568157937
C         1.44844517468042   -2.51213402014832    0.70715181280244
C         1.99267696143488   -3.75144866365275    0.41738037482603
C         1.32448681250888   -4.61512239684714   -0.43561482416297
C         0.12539745083023   -4.22278276633069   -1.01072087673685
C        -0.42411136551104   -2.97921704608592   -0.74455027825787
C        -1.68170729607323   -2.53767330232360   -1.43237508376510
P         0.53988200407963    0.61831412736936    0.00429489365156
O         1.13507270422872    0.41187663273412   -1.43425361178552
C         2.13135782866817   -0.46814664134946   -1.70365771375415
C         1.82950976840915   -1.47984694792165   -2.63483137666546
C         2.75481235266010   -2.43086980082259   -2.94501858573730
C         4.01349503856648   -2.44291280128044   -2.30226332730612
C         4.94650553354594   -3.47585885215539   -2.53494320064185
C         6.14116471173943   -3.50812169615746   -1.87412032835853
C         6.44781830628501   -2.50550863545012   -0.93761675060140
C         5.56968298317972   -1.48598805632146   -0.70241544419143
C         4.33405661274472   -1.40521334985196   -1.38716580685399
C         3.38486775379035   -0.37022556687469   -1.13668587967817
C         3.72898246298013    0.76796229150650   -0.24552502580839
C         2.90270339141189    1.10211528781145    0.80584371363637
C         3.24127153606792    2.12170125798339    1.71230677730458
C         4.39854549019720    2.82494498293058    1.55246793078397
C         5.23694155585027    2.58298922547703    0.44044141183009
C         6.38922769900638    3.36432668859973    0.20812598645931
C         7.16122536552908    3.16822761049177   -0.90107743480186
C         6.80197763028348    2.18273669457859   -1.83729265864638
C         5.70220200472258    1.39948824552229   -1.63010438251718
C         4.89589506630716    1.55390350500827   -0.47778325063365
O         1.74038147114133    0.43291872646330    1.02240155099006
Rh       -0.85945246405498    2.35580413643543    0.05535493920887
H        -5.92888587954341    0.47086664551397    2.13500976386432
H        -6.33524266432022    1.16783416579216    3.72001929415980
H        -4.81642974435061    0.27345554795160    3.49274974607333
H        -6.04154729723670    3.49055084247242    3.85991137428203
H        -4.88021942072884    5.57807511109371    3.21123253764582
H        -2.98957935196377    5.48204899130157    1.61134043623644
H        -2.26919091202576    3.32642201480415    0.62494466102931
H        -5.41694696532635   -0.32362314477835   -1.43470679329533
H        -6.75486359311939    0.63744902639302   -3.28290359591698
H        -5.68165849531138    2.16930492823756   -4.90957106432924
H        -3.27718495330485    2.70308807702088   -4.68587484948165
H        -0.93057592788466    0.92675904095870   -2.83223202641952
H        -1.22481988603511    2.48340767870705   -3.65491496338248
H        -1.33608325601243    2.37194688861050   -1.85302447910989
H         0.22541401361033   -0.28981696381554    2.70189592882066
H        -0.04572271845621   -0.68076036556862    5.13572816543181
H        -2.16411628859653   -1.62449441112593    6.00110239183731
H        -3.99085790594759   -2.18773417827302    4.43318783474522
H        -4.90555379453317   -2.23560094250748    2.27310928103223
H        -4.26012537513744   -1.05941128517668    1.10641594533813
H        -3.68231007891018   -2.72990316246251    1.08149239464538
H         1.95856163557860   -1.81985839124679    1.36668198630071
H         2.93477330445361   -4.04797946101927    0.86479786770449
H         1.74113779842139   -5.59004879746273   -0.66107044353965
H        -0.38814515745835   -4.88746508506805   -1.69829635780747
H        -1.94084326055886   -3.23555631630231   -2.22848325432341
H        -2.51009205590921   -2.48295936916057   -0.72352356187739
H        -1.53707419086027   -1.54063969652887   -1.85471995243977
H         0.84636167788294   -1.47904876881428   -3.09202718090179
H         2.53543628554376   -3.21135864261019   -3.66662151844238
H         4.68169775620271   -4.25096728589751   -3.24712992961564
H         6.85318713041188   -4.30612857247216   -2.05288919486428
H         7.38749681253106   -2.55343832642480   -0.39826121307965
H         5.80826442859113   -0.72494416197226    0.03169325149560
H         2.56422276602239    2.32526204420032    2.53489546553033
H         4.68254699815776    3.60462029093605    2.25237877655181
H         6.63679356526304    4.13627160862127    0.93004977299897
H         8.04227397000122    3.77515784493912   -1.07794035587105
H         7.40431305089962    2.05571017949223   -2.73008107659457
H         5.42323339852413    0.65025560922291   -2.36238587545479
