101
CC(C)[C@@H](Oc1cccc2c1P(C(C)(C)C)8->[C@H]([C@@H]1Oc3cccc(O[C@@H](c4ccccc4)C(C)C)c3P9->1C(C)(C)C)O2)c1ccccc1.[Rh+]89  energy: -137.665192922764 gnorm: 0.002377766424 xtb: 6.3.3 (5b13467)
C        -2.75314071173301   -0.99277172391474   -2.98871893407517
C        -3.87694993199342   -0.51360258550417   -2.08523895003474
C        -5.15517607431103   -1.30097423478985   -2.33533461764887
C        -3.44058867797316   -0.60105148918146   -0.62793260908980
O        -4.41186165757835    0.09218298804694    0.10081039375281
C        -4.19418118040368    0.28597710202192    1.42646794689103
C        -5.22378446042382   -0.06218610678686    2.30046015081092
C        -5.07571949697788    0.14384787701082    3.66720985670633
C        -3.91366126374379    0.67716190849772    4.19912417804859
C        -2.89318693633242    1.05847654932274    3.32893440095889
C        -3.05113041631390    0.89433344388748    1.94176240560963
P        -1.58659313902238    1.52032446596766    1.11687452143160
C        -2.02470552012077    3.09696326765185    0.23001189567286
C        -2.86582263754938    4.01901489691273    1.09895848489280
C        -0.71187787970666    3.77035351922639   -0.15339037497345
C        -2.78941991700066    2.72354125862692   -1.03353194596072
C        -0.84421779708467    1.96204021129684    2.77772048359204
C         0.50093026605065    1.27197945296741    2.96315732018305
O         1.50598906938631    2.28371111571650    3.12254204846289
C         2.40593049695772    2.27594028997433    2.13824794653750
C         3.38050878510868    3.26840410955553    2.00863021861827
C         4.20802408056521    3.23862494284376    0.89491856937004
C         4.10331791279163    2.26740700492968   -0.09724865593620
C         3.14770125146170    1.25759394515327    0.04098586744836
O         2.86290731654712    0.25818488955023   -0.78679411778058
C         3.34441218502527    0.29152597056273   -2.11369901425872
C         4.78369222276885   -0.12545612878608   -2.18383916554991
C         5.66576992395325    0.46097616323603   -3.08048057078309
C         6.98432615738497    0.04112727107868   -3.14634172640453
C         7.43274721707963   -0.96771395238341   -2.30956987128800
C         6.55996788507701   -1.55576000219055   -1.40685013046080
C         5.24328130081212   -1.13618531683200   -1.34902901871864
C         2.43561295699920   -0.71185283394622   -2.82851134716643
C         0.97674364734781   -0.31613777243934   -2.67411106020331
C         2.78093768456138   -0.77585919416072   -4.30947843731225
C         2.33497355493995    1.26321018552644    1.18026048065161
P         0.91278325262001    0.20958865125778    1.45268692080309
C         1.53735959874356   -1.43541105417720    2.08241905838466
C         1.95037290321180   -2.25403809600298    0.86359518467346
C         0.39613297139707   -2.13845303023478    2.80816339355169
C         2.72170226314186   -1.25990324078581    3.02163222280475
O        -1.75993666661562    1.57584580511948    3.80897413807746
C        -3.24634874491302   -1.99663775644519   -0.12284777291553
C        -1.97786485901185   -2.54920877229647   -0.04477409180469
C        -1.77213869348299   -3.83991116081121    0.39821839963981
C        -2.86179667048244   -4.60549100793577    0.78311890189826
C        -4.13618356722875   -4.06250198108315    0.74024305077947
C        -4.32716924559917   -2.76617672512245    0.29205596118140
Rh       -0.58592426297198    0.03486924587728   -0.19855218721722
H        -2.54738713782681   -2.04595881256038   -2.79811442049784
H        -1.85037162818842   -0.41225741096663   -2.77509813010834
H        -3.02030587691442   -0.86527594785800   -4.03605252804701
H        -4.07167441323533    0.53785579310753   -2.29747807669014
H        -5.51470723048560   -1.11190095408104   -3.34589808561654
H        -5.91995601170429   -0.99633041436410   -1.62109737895324
H        -4.96648905450062   -2.36871377866499   -2.22613400940411
H        -2.40082772056359   -0.09740657103257   -0.60780055261549
H        -6.13258264317650   -0.50265679192407    1.90772176309380
H        -5.88323469821152   -0.14012377258425    4.33427594670259
H        -3.80017724947067    0.80669481020003    5.26890999921416
H        -3.79233204632415    3.52273253534147    1.38773602469499
H        -2.31759955925695    4.29787877787534    1.99851097488415
H        -3.10975780490147    4.92529552933843    0.54272924680257
H        -0.90459434623065    4.65731592965299   -0.75695899050250
H        -0.16228491415536    4.06121591191759    0.74181801141001
H        -0.10273240803613    3.06885830140711   -0.73168293237564
H        -3.02467016279334    3.61799390868897   -1.60971571949960
H        -3.71445276451794    2.20817324529713   -0.77678207544070
H        -2.17445954221697    2.05608208023418   -1.64505465857766
H        -0.69586104464415    3.04369543396315    2.85424333991782
H         0.48427356654935    0.67093655134572    3.87570770330454
H         3.46998534857532    4.05896410692819    2.74385657211726
H         4.95624899354979    4.01698366839948    0.78055279688846
H         4.75146670165827    2.30876545330582   -0.96323847641993
H         3.21848988196987    1.27814524573994   -2.57152575991897
H         5.31069740883173    1.25222396137120   -3.73272536037402
H         7.66580297462117    0.50356958281085   -3.85229674228942
H         8.46462048036149   -1.29689651771747   -2.35919654675933
H         6.90969890962647   -2.34508822906635   -0.75062979924751
H         4.55096057966733   -1.58720760413992   -0.64458183527775
H         2.58899770322857   -1.69217282299725   -2.37672836943760
H         0.33724079159127   -1.04714250829132   -3.16516259475196
H         0.68659998932674   -0.26296680968021   -1.57946971731399
H         0.80848589262220    0.66546266019434   -3.11835061742267
H         2.12879325895384   -1.48567028864007   -4.81560930564082
H         2.64286823563687    0.20940090245812   -4.75452440701265
H         3.81551109308849   -1.08555201575073   -4.44739662203605
H         2.71245657852859   -1.71878987343591    0.29523858076228
H         1.08254586293099   -2.40943115554409    0.21697454201838
H         2.34379629370790   -3.22300079179757    1.17226006531890
H         0.12655118269404   -1.58670572337636    3.70866766928014
H         0.69845899357314   -3.14801237180202    3.08916580417011
H        -0.47610110262099   -2.19737944820676    2.15429269777722
H         3.54815626483697   -0.77514962949122    2.50172086284080
H         3.05300245849194   -2.23609598678740    3.37941030160359
H         2.43643756939132   -0.65147391678907    3.88000108291590
H        -1.11312964737887   -1.89718359906845   -0.32267353969455
H        -0.76875172132113   -4.24550180607299    0.45139592323271
H        -2.71531762019048   -5.62181215774788    1.13105288956854
H        -4.98659429782403   -4.65506804715298    1.05939884757251
H        -5.32253986364778   -2.33524399879036    0.27238380640552
