63
Cc1ccccc1P(c1ccccc1C)8->N1[C@H]2CC[C@H](C2)[C@@H]1c1n9->c(-c2ccccc2)cs1.[Ir+]89  energy: -91.059262327625 gnorm: 0.001781111610 xtb: 6.3.3 (5b13467)
C        -0.22551158411696   -2.23807989837206    2.48927649246017
C        -1.63370770851818   -1.73227392899446    2.40458778754167
C        -2.57695758540302   -2.28266690884125    3.26026189654205
C        -3.86953821183181   -1.78639328248341    3.30585117993886
C        -4.23091232467352   -0.71969931869403    2.49995380325238
C        -3.30266805130177   -0.17963111394110    1.62779870780702
C        -2.00332002683572   -0.67888933547035    1.55881582499933
P        -0.76258579642197   -0.12405155268582    0.32715821590877
C        -1.48933951122094   -0.70846870574395   -1.26059333583675
C        -2.77149282428032   -1.24985189493610   -1.33346675186611
C        -3.30528978496063   -1.68607387378209   -2.53370543388996
C        -2.55802218476221   -1.58795444857468   -3.69440092693138
C        -1.27463559290495   -1.06931347333694   -3.63798746322519
C        -0.73173057358938   -0.64104328213128   -2.43773064703782
C         0.68309590773734   -0.14709807356542   -2.40493907626569
N        -0.73241380515474    1.51833415147255    0.10582119065344
C        -1.67524793645041    2.41300345076558   -0.55705737130496
C        -2.35249868394264    3.24161101757821    0.53509116308026
C        -1.21559001962903    4.18081382471378    0.99717788335719
C        -0.03796949274433    3.73908171679325    0.12601049883250
C        -0.72940936296992    3.41587896656689   -1.19877459536562
C         0.38615719428336    2.34916466303380    0.58577452357811
C         1.69635087388720    1.92176826804119    0.00941601852196
N         2.15815721973396    0.67649565746094    0.22241810532472
C         3.42996420157973    0.50399699799619   -0.31322692811663
C         4.02406774691532   -0.80501271513596   -0.14275929222731
C         5.09861352484497   -1.24939177916905   -0.90744215750011
C         5.58606614966631   -2.53556990922620   -0.75617896068881
C         5.00272559963502   -3.40095533359320    0.15536825812644
C         3.94092304243873   -2.97181202772299    0.93886044874442
C         3.46406154825792   -1.68695019266432    0.78773687344230
C         3.86798958094265    1.63269228088347   -0.93721568282434
S         2.73599628130085    2.92191014603211   -0.85996601028608
Ir        1.21263118201854   -0.89775384610449    0.98358098848588
H         0.31367946959452   -2.24935445662405    1.46787618088381
H        -0.19879982043600   -3.27728421438997    2.81165355836655
H         0.32345989470930   -1.64025743256698    3.22781098789294
H        -2.29323938243698   -3.10821811060299    3.90515740818325
H        -4.59615713316108   -2.23053101712960    3.97762262932070
H        -5.23757664155953   -0.31891432349430    2.54208312082382
H        -3.58370934266428    0.64330808674067    0.98015198690722
H        -3.36701313221558   -1.33499684123955   -0.43230158044260
H        -4.30500094237972   -2.10565021337162   -2.56073498347044
H        -2.96858163880202   -1.92560633039664   -4.63984816518125
H        -0.67736301688329   -1.00305280474159   -4.54193498275579
H         0.72147217142955    0.89730059945818   -2.08771067859701
H         1.25149233644105   -0.74527314823020   -1.67722247228192
H         1.15006653163044   -0.23915454008521   -3.38443000139287
H        -2.35062269671041    1.86661195581146   -1.20017474874420
H        -3.19241477894584    3.80544833058293    0.13440805179876
H        -2.70310584247830    2.60939417823023    1.34740402545998
H        -1.47030765271933    5.22213843224539    0.80344291144065
H        -0.99416404563245    4.06078945020791    2.05669165928685
H         0.78398999614828    4.44422679774767    0.08163006940010
H        -0.04938680417070    2.96471957735597   -1.91865237768753
H        -1.23759372315631    4.27287578548642   -1.63276264636112
H         0.44748978247849    2.28697405259749    1.67479026389231
H         5.54474006510738   -0.57962271242631   -1.63517953007082
H         6.42464920937439   -2.86909616561231   -1.35788036201343
H         5.38270219500235   -4.41004835620846    0.27014012512798
H         3.50534784538467   -3.63928281376448    1.67290277095036
H         2.75309469897403   -1.30362311324519    1.60442980912968
H         4.81489740654860    1.77036310149436   -1.43487625709517
