14
CCOC(C)=O sol  energy: -19.472400983268 gnorm: 0.003508986004 xtb: 6.3.3 (5b13467)
C         1.81970512223997   -0.66962136278448    0.55498732632504
C         1.23811420121661    0.65240020119486    0.08476161445721
O        -0.04377176980203    0.49151247289363   -0.48684930360865
C        -0.96099004995866    0.16286354489059    0.35837492460524
C        -2.30711117247635    0.01428451987480   -0.31170247607448
O        -0.80050865569451   -0.02005017646395    1.54972533306785
H         1.79290136091779   -1.39263129523135   -0.25800987261692
H         2.84939408163124   -0.53357675903520    0.87736086891214
H         1.23447626845656   -1.04878866601420    1.39118004733025
H         1.21362901441169    1.35565729571021    0.92321975314655
H         1.86405673554669    1.06716552413162   -0.70635527969244
H        -3.07366939832389   -0.12166267097096    0.44684688217845
H        -2.53062423430034    0.89511668522837   -0.90976883071576
H        -2.29560050386488   -0.85266931342397   -0.96998598731465
