30
CCOC(=O)C[C@@H](C)c1ccccc1 prod  energy: -40.770619762122 gnorm: 0.001261366130 xtb: 6.3.3 (5b13467)
C         2.38685017690168    0.60614240080784    1.94787941431341
C         3.05573051877121    0.93403312677625    0.62349876451746
O         2.25225592767146    0.56265150513719   -0.47755631546908
C         1.18155366070698    1.26538322002921   -0.60977282293633
O         0.81563653412689    2.17545494650593    0.11777519037253
C         0.33498898616717    0.79833497905912   -1.77336136144395
C        -1.11669778475840    0.69825324332108   -1.29078453833067
C        -2.04553708081681    0.33564772449412   -2.44294260858043
C        -1.20144339075899   -0.30531042346811   -0.17110838539170
C        -1.49148881713190    0.11108165476470    1.12033389533356
C        -1.53438249927453   -0.79717264148800    2.16548395312153
C        -1.28118067594272   -2.13773580404076    1.92683771737592
C        -0.98558968218649   -2.56318463365691    0.64132132067794
C        -0.94543292045590   -1.65116695659434   -0.39914072178483
H         1.49824329296006    1.22327987956367    2.06939894928163
H         3.06995290168218    0.80343200848636    2.77099672567174
H         2.09936515265908   -0.44348684082435    1.96632591765035
H         3.97708949243230    0.35852968387667    0.52726689790335
H         3.30062261059163    2.00038007551367    0.59595780665772
H         0.68202575796554   -0.17118360883206   -2.13050001093600
H         0.39419393099851    1.52252571460922   -2.58654000778716
H        -1.40065368690158    1.67805081238950   -0.90003531081148
H        -1.98549868964872    1.09749999987530   -3.21903919656665
H        -1.74554383249222   -0.62231434111605   -2.86641238585319
H        -3.07374541146525    0.26454312406856   -2.09057821366391
H        -1.67759574918347    1.16409973066050    1.30609854331532
H        -1.76284424125270   -0.45746475144536    3.16963763782104
H        -1.31092311051860   -2.85105603728682    2.74244490965649
H        -0.78216896891919   -3.61109842583808    0.45037366244613
H        -0.70778340192721   -1.98815136534807   -1.40253342656056
