22
CC(=O)NC(C)=C(C)C react  energy: -28.253334999686 gnorm: 0.002671800506 xtb: 6.3.3 (5b13467)
C         3.15241534844206   -0.41905433346561    1.08902666247021
C         2.15284122380102    0.39674704569715    0.30545217109012
O         2.47694125951281    1.38795623135122   -0.30640245856899
N         0.90715316152075   -0.11825944257903    0.36537976692765
C        -0.23185664313424    0.36591146761345   -0.27713143470692
C        -0.02035716890390    1.63506177945209   -1.04829943810030
C        -1.39562175935061   -0.27370363502312   -0.18885930731094
C        -2.65181272016193    0.17893323629696   -0.89179470379327
C        -1.59721673362571   -1.52523998905052    0.63107321607922
H         3.44297699183129   -1.28666782756056    0.49843127412137
H         4.03438077612984    0.18569656904548    1.28568106491247
H         2.72202028513355   -0.76570264064161    2.02533325807501
H         0.76774848901674   -0.95410080804859    0.90934600399931
H        -0.96158970791052    2.01958956067040   -1.43338595217733
H         0.66498618184254    1.45838421279616   -1.87928978491859
H         0.43230729907067    2.38667295284444   -0.40226402605412
H        -3.25191785023558    0.80943608694185   -0.23045654349636
H        -2.42552817138730    0.74066001168825   -1.79700168011531
H        -3.24619936716189   -0.69472176345309   -1.16252903205851
H        -1.64037838859902   -2.40208271122181   -0.01977901724243
H        -2.54025153542235   -1.45675089114804    1.17635377012009
H        -0.79103897040820   -1.66876311220547    1.35111819074762
