24
CC(=O)N[C@@H](C)C(C)C prod  energy: -29.406139478286 gnorm: 0.001451325213 xtb: 6.3.3 (5b13467)
C         2.82748103800045    1.32415792240882   -0.34030166373924
C         1.81048200097838    0.26691956628052   -0.68117590487194
O         1.79802265748743   -0.30698600964858   -1.75212952285487
N         0.90986628681818    0.02874054495935    0.28271265946264
C        -0.10374734548243   -0.97653140074435    0.11157379395533
C        -0.17724278121105   -1.84909830066931    1.35116103727641
C        -1.45145736670746   -0.33103116434829   -0.21927482368567
C        -1.36147676472850    0.38072533615179   -1.56449378820278
C        -1.87802492577738    0.66169924864296    0.85430653541286
H         3.79900551215872    1.02798701887130   -0.72981466671178
H         2.89057327377301    1.47640244751637    0.73413865414449
H         2.53955912518235    2.26113884055926   -0.81423361150924
H         0.92908001784871    0.51624149332203    1.15940908637760
H         0.19598970146224   -1.58847285285413   -0.74142161892505
H        -0.37058575531380   -1.22865557293201    2.22459428045126
H         0.76662019743721   -2.37057905117731    1.49760475161385
H        -0.97799830983792   -2.57808130427000    1.24615935855049
H        -2.19495939555470   -1.12432368967977   -0.28742732540089
H        -2.33985392909873    0.75848396641461   -1.85871351012597
H        -0.99396726929299   -0.30239449311725   -2.33011068039009
H        -0.67226376542470    1.22158672429154   -1.48415546408493
H        -1.12594570196175    1.44605003492432    0.94385554813949
H        -2.82819444720566    1.11895222896551    0.58003153121166
H        -1.99095905354965    0.16706946613270    1.81770734390638
