28
CCOC(=O)/C=C(\C)c1ccccc1 react  energy: -39.624410625880 gnorm: 0.002872415795 xtb: 6.3.3 (5b13467)
C         4.92311813211858    1.28481166670098   -0.28526406367348
C         4.07480496549156    0.03248116746952   -0.23077916033166
O         2.72941385933074    0.45731372171278   -0.13397883986232
C         1.87458948643993   -0.52220303402346   -0.09737786883069
O         2.18320817530509   -1.70676938883101   -0.13461864745351
C         0.50153796402580   -0.00866155547063   -0.01215676852175
C        -0.62105239726775   -0.73709334124908   -0.01410957798254
C        -0.61062695417267   -2.23522979253044   -0.12243726373154
C        -1.94863123171435   -0.10535037007822    0.05367466208481
C        -2.12715305856806    1.12198578428177    0.69189111771052
C        -3.37400144844550    1.71525204561880    0.75698533785742
C        -4.47106797678400    1.09508280233560    0.18234770131052
C        -4.30939811597766   -0.12323529692967   -0.45780630411099
C        -3.06320977916161   -0.71986704211216   -0.51619542710329
H         4.77464683018388    1.87076166966328    0.62081821341505
H         5.97633395911567    1.02662354949709   -0.37384678465975
H         4.63177486702278    1.88859719595451   -1.14359585210717
H         4.35677506985736   -0.57360347964903    0.63587136697899
H         4.23274113305527   -0.56445819021419   -1.13477129626915
H         0.43871744640928    1.07512314605996    0.03218971553827
H        -1.34933009508826   -2.66492601913584    0.55384884015470
H         0.37688071568282   -2.63111258164025    0.11622781958821
H        -0.86707684285471   -2.52926199139603   -1.14081383357755
H        -1.27784852800829    1.60873629489331    1.15637592186272
H        -3.49366569950440    2.66666998582463    1.26287011546563
H        -5.44902779487244    1.55925294616334    0.23396148872496
H        -5.16252828040701   -0.61301694350435   -0.91236638694205
H        -2.94992340121246   -1.66790194941070   -1.02845022553377
