5
ClCCl sol  energy: -11.790961197598 gnorm: 0.000438192170 xtb: 6.3.3 (5b13467)
Cl       -1.45285880380956   -0.87017743732584   -0.06678664312910
C        -0.00183816850714    0.15517197904117    0.01181646909987
Cl        1.47307120019079   -0.83579038162430   -0.06312346171020
H        -0.00950388211740    0.70768307673945    0.94822280841060
H        -0.00886934575669    0.84311276316951   -0.83012917267116
