31
COC(=O)[C@@H](Cc1ccccc1)NC(C)=O prod  energy: -46.437380946892 gnorm: 0.003739189461 xtb: 6.3.3 (5b13467)
C        -0.06585029225400    3.49752500482148    1.21826572221247
O         0.44260262091971    2.20584110103477    1.49189461759910
C         0.84947789824005    1.58350880248732    0.44230332062930
O         0.81437457768509    1.97317346318441   -0.71449500298165
C         1.37421777107781    0.20087539819895    0.77805408770266
C         0.28421368699315   -0.62295662130638    1.48573320423779
C        -0.96797818003330   -0.62327736074444    0.65773322655431
C        -1.94115634036367    0.34240105364191    0.87636955117332
C        -3.06155358980371    0.41121642865302    0.06640640329234
C        -3.21739762080253   -0.48834426620527   -0.97597155278090
C        -2.25444535029074   -1.45912874815173   -1.19694628972764
C        -1.13551307924485   -1.52591059305557   -0.38277519758430
N         1.74911021054643   -0.39816131830863   -0.47519192906830
C         2.30329041104106   -1.61782719234971   -0.52770640682198
C         2.65218629494235   -2.08374810701564   -1.91651579184190
O         2.49764179576011   -2.29888975754432    0.45982428102049
H        -0.97323934704949    3.45220111347075    0.60666543156303
H         0.67197772480716    4.12299580140042    0.70482332409629
H        -0.30949980175584    3.94826065267696    2.18151937155528
H         2.24596087942998    0.26483824564729    1.43202846854782
H         0.65741485878049   -1.63890382390077    1.63005273743194
H         0.09065941506082   -0.16079172273633    2.45397470797262
H        -1.80777752819138    1.04911610580942    1.68866327068097
H        -3.81365557525617    1.17121921633152    0.24609016082153
H        -4.09108790612959   -0.43348132355174   -1.61516170615059
H        -2.37420853346527   -2.16635714210947   -2.01020148138924
H        -0.38397317771980   -2.28789424594614   -0.55648740073621
H         1.57138460770969    0.18959475534014   -1.27896592976615
H         1.74462446631513   -2.37963199004854   -2.44079993417999
H         3.13130479118522   -1.28692662506814   -2.47979739439857
H         3.31689431186466   -2.94053630465589   -1.84938686966478
