29
COC(=O)/C(=C\c1ccccc1)NC(C)=O react  energy: -45.292620706589 gnorm: 0.001879937663 xtb: 6.3.3 (5b13467)
C         0.56121998097654    2.37935191816825   -2.06655616082643
O         0.36751296462154    1.36693679184851   -1.10159158619786
C        -0.73616672373931    0.72730996527588   -1.23510137379336
O        -1.59676230949867    0.92493855992335   -2.08801302211678
C        -0.97350307057958   -0.32353458895623   -0.20549300430778
C        -0.20791869324043   -0.65662794972968    0.84168413713620
C         1.13003545703998   -0.14483759594867    1.15946442169838
C         1.44266212524235    0.18474061011600    2.47765789246123
C         2.69837840893932    0.66238078189088    2.80733937558381
C         3.67205097491815    0.79762645331817    1.83021977235685
C         3.38319399697008    0.44065750334890    0.52200443526316
C         2.12583343389668   -0.02958899172305    0.19136347490462
N        -2.21708170142566   -0.89182952288362   -0.44966084562438
C        -2.79142256533774   -1.92661436569472    0.20444427667656
C        -4.12289987205422   -2.31481394993148   -0.39141407226135
O        -2.31339605944315   -2.49134281956463    1.15700754408245
H         0.91837422434459    1.95336433727232   -3.01024319553784
H        -0.35412291580748    2.94865448378857   -2.26325626149407
H         1.32603311822636    3.04997630840484   -1.67110777229323
H        -0.60773814280141   -1.36691232525118    1.56260983022683
H         0.68246412284691    0.07855303516505    3.24387712559383
H         2.92187548524520    0.93131908987974    3.83416070622906
H         4.65528040584826    1.17340375076641    2.08863438949580
H         4.14484402232522    0.52659863741305   -0.24506241379025
H         1.90744853250597   -0.31101141852536   -0.83248282832234
H        -2.67305751996608   -0.46675621252590   -1.25102400885864
H        -4.81684448430761   -1.47990347473127   -0.32669500130828
H        -3.99972507576779   -2.57584119808072   -1.44018461502785
H        -4.52656711997789   -3.16619981303285    0.15010278005128
